Circuit: * C:\Users\HP\Desktop\studia\ee\19_10_23\Draft1.asc

Direct Newton iteration for .op point succeeded.

Date: Sat Dec  9 16:42:10 2023
Total elapsed time: 0.081 seconds.

tnom = 27
temp = 27
method = modified trap
totiter = 2086
traniter = 2082
tranpoints = 1042
accept = 1042
rejected = 0
matrix size = 3
fillins = 0
solver = Normal
Avg thread counts: 2.3/3.6/3.6/2.3
Matrix Compiler1: 68 bytes object code size  0.2/0.2/[0.2]
Matrix Compiler2: 135 bytes object code size  0.2/0.2/[0.1]

