Circuit: * C:\Users\HP\Desktop\studia\ee\19_10_23\zad2a.asc

Direct Newton iteration for .op point succeeded.

Date: Thu Oct 26 14:57:15 2023
Total elapsed time: 0.818 seconds.

tnom = 27
temp = 27
method = modified trap
totiter = 81992
traniter = 81987
tranpoints = 38398
accept = 32020
rejected = 6378
matrix size = 16
fillins = 0
solver = Normal
Avg thread counts: 1.0/1.1/1.1/1.0
Matrix Compiler1: 538 bytes object code size  0.3/0.2/[0.2]
Matrix Compiler2: 1.02 KB object code size  0.2/0.4/[0.2]

